DSSLLibtestckt_VLN_Node.Txt

LINE-GROUND and LINE-LINE VOLTAGES BY BUS & NODE

Bus       Node    VLN (kV)   Angle      pu     Base kV    Node-Node   VLL (kV)  Angle      pu

SOURCEBUS 1       66.395 /_    0.0   0.99999   115.000        1-2        115 /_   30.0   0.99999
   -      2       66.395 /_ -120.0   0.99999   115.000        2-3        115 /_  -90.0   0.99999
   -      3       66.395 /_  120.0   0.99999   115.000        3-1        115 /_  150.0   0.99999
SUBBUS .. 1       7.0389 /_   -2.0   0.97768    12.470        1-2     12.192 /_   28.0   0.97768
   -      2       7.0389 /_ -122.0   0.97768    12.470        2-3     12.192 /_  -92.0   0.97768
   -      3       7.0389 /_  118.0   0.97768    12.470        3-1     12.192 /_  148.0   0.97768
LOADBUS1  1       6.9742 /_   -2.3    0.9687    12.470        1-2     12.085 /_   27.7    0.9691
   -      2       6.9819 /_ -122.3   0.96977    12.470        2-3       12.1 /_  -92.3   0.97033
   -      3       6.9844 /_  117.6   0.97011    12.470        3-1     12.085 /_  147.6   0.96915
